%NProcShared=30
%Mem=80GB
%chk=eh2o.chk
#p ROHF/Gen Opt Freq nosymm
gfinput 6d

eh2o

0 1
O -4.368554 0.271714 0.000297
H -4.738713 1.011836 0.740096
H -3.258554 0.272369 -0.000126

H     0
S    2   1.00
      0.5447178000D+01       0.1562849787D+00
      0.8245472400D+00       0.9046908767D+00
S    1   1.00
      0.1831915800D+00       1.0000000
****
O     0
S    3   1.00
      0.3220370000D+03       0.5923939339D-01
      0.4843080000D+02       0.3514999608D+00
      0.1042060000D+02       0.7076579210D+00
SP   2   1.00
      0.7402940000D+01      -0.4044535832D+00       0.2445861070D+00
      0.1576200000D+01       0.1221561761D+01       0.8539553735D+00
SP   1   1.00
      0.3736840000D+00       0.1000000000D+01       0.1000000000D+01
***

