%nprocshared=30
%mem=80GB
%chk=C:\Users\shxu\Desktop\TMs_Dimer_3-3.chk
#p freq uhf scrf=check guess=tcheck geom=(connectivity,allcheck) chkbas
genchk test

strain2

0 1
 C                 -3.57879900    0.00000000    0.00000000
 C                 -2.86487000   -1.22968200    0.00000000
 C                 -1.44066000   -1.19422900    0.00000000
 C                 -0.74600000    0.00000000    0.00000000
 C                 -1.44066000    1.19422900    0.00000000
 C                 -2.86487000    1.22968200    0.00000000
 C                 -4.98705500    0.00000000    0.00000000
 C                 -5.69283400   -1.22413300    0.00000000
 C                 -4.97886500   -2.45151800    0.00000000
 C                 -3.56828400   -2.42135700    0.00000000
 C                 -5.69283400    1.22413300    0.00000000
 C                 -4.97886500    2.45151800    0.00000000
 C                 -3.56828400    2.42135700    0.00000000
 C                 -5.70238300    3.65460700    0.00000000
 C                 -7.08775000    3.64487600    0.00000000
 C                 -7.79150000    2.46349800    0.00000000
 C                 -7.11682000    1.22125900    0.00000000
 C                 -7.11682000   -1.22125900    0.00000000
 C                 -7.79631200    0.00000000    0.00000000
 C                 -5.70238300   -3.65460700    0.00000000
 C                 -7.08775000   -3.64487600    0.00000000
 C                 -7.79150000   -2.46349800    0.00000000
 C                  0.74600000    0.00000000    0.00000000
 C                  1.44066000   -1.19422900    0.00000000
 C                  2.86487000   -1.22968200    0.00000000
 C                  3.57879900    0.00000000    0.00000000
 C                  2.86487000    1.22968200    0.00000000
 C                  1.44066000    1.19422900    0.00000000
 C                  3.56828400    2.42135700    0.00000000
 C                  4.97886500    2.45151800    0.00000000
 C                  5.69283400    1.22413300    0.00000000
 C                  4.98705500    0.00000000    0.00000000
 C                  5.69283400   -1.22413300    0.00000000
 C                  4.97886500   -2.45151800    0.00000000
 C                  3.56828400   -2.42135700    0.00000000
 H                 -0.93614500   -2.13341700    0.00000000
 H                 -0.93614500    2.13341700    0.00000000
 H                 -3.03262500   -3.35100400    0.00000000
 H                 -3.03262500    3.35100400    0.00000000
 H                 -5.17038700    4.58525500    0.00000000
 H                 -7.61914200    4.57588600    0.00000000
 H                 -8.86352300    2.47184400    0.00000000
 H                 -8.86918300    0.00000000    0.00000000
 H                 -5.17038700   -4.58525500    0.00000000
 H                 -7.61914200   -4.57588600    0.00000000
 H                 -8.86352300   -2.47184400    0.00000000
 H                  0.93614500   -2.13341700    0.00000000
 H                  0.93614500    2.13341700    0.00000000
 H                  3.03262500    3.35100400    0.00000000
 H                  3.03262500   -3.35100400    0.00000000
 C                  7.11682000    1.22125900    0.00000000
 C                  7.79150000    2.46349800    0.00000000
 C                  7.08775000    3.64487600    0.00000000
 C                  5.70238300    3.65460700    0.00000000
 C                  7.11682000   -1.22125900    0.00000000
 C                  7.79631200    0.00000000    0.00000000
 C                  5.70238300   -3.65460700    0.00000000
 C                  7.08775000   -3.64487600    0.00000000
 C                  7.79150000   -2.46349800    0.00000000
 H                  8.86352300    2.47184400    0.00000000
 H                  7.61914200    4.57588600    0.00000000
 H                  5.17038700    4.58525500    0.00000000
 H                  8.86918300    0.00000000    0.00000000
 H                  5.17038700   -4.58525500    0.00000000
 H                  7.61914200   -4.57588600    0.00000000
 H                  8.86352300   -2.47184400    0.00000000
 Cu                 4.98705500    0.00000000    2.00000000
 Co                -4.98705500    0.00000000    2.00000000

 1 2 1.5 6 1.5 7 1.5
 2 3 1.5 10 2.0
 3 4 2.0 36 1.0
 4 5 2.0 23 1.0
 5 6 1.5 37 1.0
 6 13 2.0
 7 8 1.5 11 1.5
 8 9 1.5 18 1.5
 9 10 1.5 20 1.5
 10 38 1.0
 11 12 1.5 17 1.5
 12 13 1.5 14 1.5
 13 39 1.0
 14 15 2.0 40 1.0
 15 16 2.0 41 1.0
 16 17 1.5 42 1.0
 17 19 1.5
 18 19 1.5 22 1.5
 19 43 1.0
 20 21 2.0 44 1.0
 21 22 2.0 45 1.0
 22 46 1.0
 23 24 2.0 28 2.0
 24 25 1.5 47 1.0
 25 26 1.5 35 2.0
 26 27 1.5 32 1.5
 27 28 1.5 29 2.0
 28 48 1.0
 29 30 1.5 49 1.0
 30 31 1.5 54 1.5
 31 32 1.5 51 1.5
 32 33 1.5
 33 34 1.5 55 1.5
 34 35 1.5 57 1.5
 35 50 1.0
 36
 37
 38
 39
 40
 41
 42
 43
 44
 45
 46
 47
 48
 49
 50
 51 52 1.5 56 1.5
 52 53 2.0 60 1.0
 53 54 2.0 61 1.0
 54 62 1.0
 55 56 1.5 59 1.5
 56 63 1.0
 57 58 2.0 64 1.0
 58 59 2.0 65 1.0
 59 66 1.0
 60
 61
 62
 63
 64
 65
 66
 67
 68

